xflr5 v6.61

 Calculated polar for: NACA 2412

 1 1 Reynolds number fixed          Mach number fixed         

 xtrf =   1.000 (top)        1.000 (bottom)
 Mach =   0.000     Re =     9.000 e 6     Ncrit =   9.000

  alpha     CL        CD       CDp       Cm    Top Xtr Bot Xtr   Cpmin    Chinge    XCp    
 ------- -------- --------- --------- -------- ------- ------- -------- --------- ---------
  -8.000  -0.6680   0.00698   0.00276  -0.0507  0.8507  0.0177  -4.5988   0.0000   0.0000   0.0000   0.1650
  -7.500  -0.6117   0.00676   0.00250  -0.0507  0.8311  0.0186  -4.1380   0.0000   0.0000   0.0000   0.1583
  -7.000  -0.5551   0.00659   0.00227  -0.0508  0.8067  0.0188  -3.6944   0.0000   0.0000   0.0000   0.1500
  -6.500  -0.4985   0.00638   0.00203  -0.0508  0.7824  0.0230  -3.2756   0.0000   0.0000   0.0000   0.1397
  -6.000  -0.4420   0.00619   0.00180  -0.0509  0.7538  0.0264  -2.9314   0.0000   0.0000   0.0000   0.1267
  -5.500  -0.3850   0.00607   0.00162  -0.0510  0.7256  0.0291  -2.5990   0.0000   0.0000   0.0000   0.1094
  -5.000  -0.3283   0.00591   0.00143  -0.0511  0.6943  0.0358  -2.2812   0.0000   0.0000   0.0000   0.0861
  -4.500  -0.2712   0.00581   0.00129  -0.0513  0.6637  0.0421  -1.9774   0.0000   0.0000   0.0000   0.0525
  -4.000  -0.2141   0.00572   0.00115  -0.0514  0.6311  0.0481  -1.6878   0.0000   0.0000   0.0000   0.0008
  -3.500  -0.1571   0.00561   0.00102  -0.0516  0.6000  0.0608  -1.4490   0.0000   0.0000   0.0000  -0.0886
  -3.000  -0.0998   0.00553   0.00092  -0.0518  0.5698  0.0737  -1.2263   0.0000   0.0000   0.0000  -0.2814
  -2.500  -0.0426   0.00547   0.00084  -0.0519  0.5405  0.0902  -1.0170   0.0000   0.0000   0.0000  -0.9939
  -2.000   0.0146   0.00536   0.00076  -0.0521  0.5146  0.1170  -0.8450   0.0000   0.0000   0.0000   3.8840
  -1.500   0.0721   0.00531   0.00071  -0.0524  0.4915  0.1372  -0.6859   0.0000   0.0000   0.0000   0.9834
  -1.000   0.1295   0.00522   0.00067  -0.0526  0.4696  0.1725  -0.5497   0.0000   0.0000   0.0000   0.6580
  -0.500   0.1869   0.00516   0.00065  -0.0529  0.4474  0.2081  -0.5247   0.0000   0.0000   0.0000   0.5325
   0.000   0.2442   0.00514   0.00066  -0.0531  0.4224  0.2423  -0.5704   0.0000   0.0000   0.0000   0.4660
   0.500   0.3015   0.00510   0.00067  -0.0533  0.4040  0.2875  -0.6199   0.0000   0.0000   0.0000   0.4248
   1.000   0.3585   0.00510   0.00071  -0.0535  0.3786  0.3346  -0.6743   0.0000   0.0000   0.0000   0.3967
   2.000   0.4712   0.00515   0.00085  -0.0538  0.3132  0.4637  -0.8038   0.0000   0.0000   0.0000   0.3606
   2.500   0.5267   0.00526   0.00098  -0.0538  0.2747  0.5346  -0.8883   0.0000   0.0000   0.0000   0.3481
   3.000   0.5823   0.00538   0.00112  -0.0538  0.2382  0.5972  -0.9995   0.0000   0.0000   0.0000   0.3380
   3.500   0.6371   0.00559   0.00131  -0.0536  0.1960  0.6630  -1.1380   0.0000   0.0000   0.0000   0.3294
   4.000   0.6916   0.00582   0.00153  -0.0534  0.1569  0.7304  -1.3041   0.0000   0.0000   0.0000   0.3221
   4.500   0.7459   0.00605   0.00177  -0.0532  0.1264  0.7959  -1.4971   0.0000   0.0000   0.0000   0.3157
   5.000   0.7992   0.00632   0.00204  -0.0528  0.0943  0.8660  -1.7095   0.0000   0.0000   0.0000   0.3099
   5.500   0.8522   0.00655   0.00232  -0.0522  0.0730  0.9259  -1.9481   0.0000   0.0000   0.0000   0.3047
   6.000   0.9025   0.00679   0.00258  -0.0509  0.0590  0.9742  -2.2120   0.0000   0.0000   0.0000   0.2994
   6.500   0.9595   0.00716   0.00287  -0.0513  0.0459  0.9947  -2.5029   0.0000   0.0000   0.0000   0.2959
   7.000   1.0228   0.00756   0.00319  -0.0532  0.0361  1.0000  -2.8232   0.0000   0.0000   0.0000   0.2938
   7.500   1.0741   0.00794   0.00351  -0.0524  0.0308  1.0000  -3.1777   0.0000   0.0000   0.0000   0.2900
   8.000   1.1269   0.00827   0.00380  -0.0519  0.0264  1.0000  -3.5517   0.0000   0.0000   0.0000   0.2867
   8.500   1.1789   0.00870   0.00418  -0.0513  0.0225  1.0000  -3.9376   0.0000   0.0000   0.0000   0.2835
   9.000   1.2312   0.00909   0.00454  -0.0508  0.0187  1.0000  -4.3389   0.0000   0.0000   0.0000   0.2806
   9.500   1.2832   0.00949   0.00491  -0.0503  0.0176  1.0000  -4.7560   0.0000   0.0000   0.0000   0.2778
  10.000   1.3335   0.01002   0.00539  -0.0496  0.0145  1.0000  -5.1792   0.0000   0.0000   0.0000   0.2751
  10.500   1.3841   0.01049   0.00583  -0.0489  0.0121  1.0000  -5.6165   0.0000   0.0000   0.0000   0.2724
  11.000   1.4344   0.01093   0.00627  -0.0482  0.0120  1.0000  -6.0761   0.0000   0.0000   0.0000   0.2699
  11.500   1.4839   0.01140   0.00674  -0.0474  0.0118  1.0000  -6.6120   0.0000   0.0000   0.0000   0.2675
  12.000   1.5319   0.01194   0.00727  -0.0463  0.0112  1.0000  -7.1587   0.0000   0.0000   0.0000   0.2650


