xflr5 v6.61

 Calculated polar for: NACA 2412

 1 1 Reynolds number fixed          Mach number fixed         

 xtrf =   1.000 (top)        1.000 (bottom)
 Mach =   0.000     Re =     3.000 e 6     Ncrit =   9.000

  alpha     CL        CD       CDp       Cm    Top Xtr Bot Xtr   Cpmin    Chinge    XCp    
 ------- -------- --------- --------- -------- ------- ------- -------- --------- ---------
  -8.000  -0.6510   0.00860   0.00390  -0.0540  0.9409  0.0196  -4.4926   0.0000   0.0000   0.0000   0.1578
  -7.500  -0.5973   0.00813   0.00340  -0.0535  0.9267  0.0237  -4.0581   0.0000   0.0000   0.0000   0.1515
  -7.000  -0.5421   0.00779   0.00305  -0.0533  0.9121  0.0264  -3.6249   0.0000   0.0000   0.0000   0.1430
  -6.500  -0.4867   0.00752   0.00273  -0.0531  0.8947  0.0290  -3.2229   0.0000   0.0000   0.0000   0.1324
  -6.000  -0.4315   0.00721   0.00241  -0.0529  0.8753  0.0355  -2.8876   0.0000   0.0000   0.0000   0.1191
  -5.500  -0.3757   0.00698   0.00213  -0.0528  0.8527  0.0416  -2.5634   0.0000   0.0000   0.0000   0.1013
  -5.000  -0.3196   0.00677   0.00189  -0.0527  0.8303  0.0475  -2.2488   0.0000   0.0000   0.0000   0.0767
  -4.500  -0.2636   0.00655   0.00166  -0.0526  0.8044  0.0588  -1.9509   0.0000   0.0000   0.0000   0.0417
  -4.000  -0.2075   0.00637   0.00146  -0.0526  0.7771  0.0731  -1.6661   0.0000   0.0000   0.0000  -0.0127
  -3.500  -0.1514   0.00620   0.00128  -0.0525  0.7461  0.0929  -1.4350   0.0000   0.0000   0.0000  -0.1075
  -3.000  -0.0952   0.00605   0.00113  -0.0525  0.7147  0.1163  -1.2155   0.0000   0.0000   0.0000  -0.3149
  -2.500  -0.0390   0.00591   0.00101  -0.0525  0.6827  0.1479  -1.0111   0.0000   0.0000   0.0000  -1.1220
  -2.000   0.0174   0.00579   0.00092  -0.0525  0.6513  0.1837  -0.8405   0.0000   0.0000   0.0000   3.3206
  -1.500   0.0738   0.00569   0.00085  -0.0526  0.6197  0.2212  -0.6841   0.0000   0.0000   0.0000   0.9694
  -1.000   0.1301   0.00560   0.00080  -0.0527  0.5881  0.2704  -0.5492   0.0000   0.0000   0.0000   0.6564
  -0.500   0.1863   0.00550   0.00079  -0.0527  0.5573  0.3267  -0.5248   0.0000   0.0000   0.0000   0.5327
   0.000   0.2425   0.00541   0.00078  -0.0528  0.5281  0.3914  -0.5699   0.0000   0.0000   0.0000   0.4663
   0.500   0.2983   0.00525   0.00081  -0.0528  0.5008  0.4874  -0.6185   0.0000   0.0000   0.0000   0.4249
   1.000   0.3541   0.00514   0.00086  -0.0528  0.4749  0.5791  -0.6720   0.0000   0.0000   0.0000   0.3965
   1.500   0.4099   0.00508   0.00093  -0.0528  0.4490  0.6609  -0.7316   0.0000   0.0000   0.0000   0.3756
   2.000   0.4653   0.00506   0.00103  -0.0526  0.4224  0.7413  -0.8001   0.0000   0.0000   0.0000   0.3596
   2.500   0.5200   0.00505   0.00115  -0.0523  0.3952  0.8222  -0.8830   0.0000   0.0000   0.0000   0.3466
   3.000   0.5734   0.00511   0.00130  -0.0516  0.3647  0.8941  -0.9900   0.0000   0.0000   0.0000   0.3357
   3.500   0.6247   0.00533   0.00149  -0.0505  0.3268  0.9467  -1.1227   0.0000   0.0000   0.0000   0.3260
   4.000   0.6775   0.00567   0.00171  -0.0497  0.2847  0.9789  -1.2836   0.0000   0.0000   0.0000   0.3182
   5.000   0.8057   0.00677   0.00232  -0.0539  0.1832  0.9978  -1.7234   0.0000   0.0000   0.0000   0.3107
   5.500   0.8647   0.00737   0.00269  -0.0549  0.1374  1.0000  -1.9772   0.0000   0.0000   0.0000   0.3069
   6.000   0.9106   0.00793   0.00306  -0.0530  0.1027  1.0000  -2.2296   0.0000   0.0000   0.0000   0.3011
   6.500   0.9590   0.00841   0.00343  -0.0516  0.0813  1.0000  -2.4981   0.0000   0.0000   0.0000   0.2961
   7.000   1.0083   0.00897   0.00385  -0.0504  0.0613  1.0000  -2.7788   0.0000   0.0000   0.0000   0.2918
   7.500   1.0586   0.00949   0.00429  -0.0495  0.0471  1.0000  -3.1176   0.0000   0.0000   0.0000   0.2880
   8.000   1.1090   0.01001   0.00474  -0.0487  0.0387  1.0000  -3.4790   0.0000   0.0000   0.0000   0.2845
   8.500   1.1599   0.01048   0.00518  -0.0479  0.0334  1.0000  -3.8565   0.0000   0.0000   0.0000   0.2813
   9.000   1.2093   0.01106   0.00572  -0.0470  0.0268  1.0000  -4.2411   0.0000   0.0000   0.0000   0.2782
   9.500   1.2592   0.01157   0.00622  -0.0462  0.0246  1.0000  -4.6425   0.0000   0.0000   0.0000   0.2753
  10.000   1.3064   0.01227   0.00688  -0.0449  0.0197  1.0000  -5.0430   0.0000   0.0000   0.0000   0.2723
  10.500   1.3548   0.01281   0.00744  -0.0439  0.0184  1.0000  -5.4686   0.0000   0.0000   0.0000   0.2696
  11.000   1.4015   0.01344   0.00807  -0.0427  0.0169  1.0000  -5.8998   0.0000   0.0000   0.0000   0.2668
  11.500   1.4448   0.01426   0.00888  -0.0409  0.0143  1.0000  -6.3725   0.0000   0.0000   0.0000   0.2639
  12.000   1.4852   0.01521   0.00989  -0.0387  0.0122  1.0000  -6.8535   0.0000   0.0000   0.0000   0.2608


